17

H       4.84057725       3.71505674      17.76785590
H       3.71897906       2.84079392      16.72310077
H       2.95365030       4.25047885      19.34941604
C       3.44410453       4.98033098      16.73011953
H       5.32419297       4.94815008      15.74931309
H       4.32727240       6.20338460      15.26579865
H       3.16347564       1.25550344      18.65143955
H       2.58178575       1.92314514      20.20102534
H       3.58195878       5.84805006      17.38650338
C       3.23394560       2.11156926      19.33641834
C       2.87859354       3.41655421      18.63324277
H       2.40757067       4.98391660      16.36384435
H       4.01553666       4.62042478      14.74355106
C       3.79003279       3.67973842      17.43485483
H       1.83021739       3.39683332      18.29140326
N       4.32894033       5.20344594      15.54420938
H       4.27072964       2.14939751      19.69931412
